Version 4
SHEET 1 2540 1688
WIRE 1632 -256 1568 -256
WIRE 1840 -256 1760 -256
WIRE 1568 -208 1568 -256
WIRE 1632 -208 1632 -256
WIRE 1760 -208 1760 -256
WIRE 1840 -208 1840 -256
WIRE -1936 -96 -1936 -112
WIRE 208 -96 208 -112
WIRE -2416 -80 -2640 -80
WIRE -2128 -80 -2336 -80
WIRE -1968 -80 -2048 -80
WIRE -1952 -80 -1968 -80
WIRE -288 -80 -496 -80
WIRE 16 -80 -208 -80
WIRE 176 -80 96 -80
WIRE 192 -80 176 -80
WIRE 1632 -80 1632 -128
WIRE 1840 -80 1840 -128
WIRE -1760 -64 -1904 -64
WIRE -1632 -64 -1760 -64
WIRE -1440 -64 -1552 -64
WIRE -1408 -64 -1440 -64
WIRE -1248 -64 -1328 -64
WIRE 384 -64 240 -64
WIRE 512 -64 384 -64
WIRE 704 -64 592 -64
WIRE 736 -64 704 -64
WIRE 896 -64 816 -64
WIRE -1968 -48 -2000 -48
WIRE 176 -48 144 -48
WIRE -1760 -32 -1760 -64
WIRE -496 -32 -496 -80
WIRE 384 -32 384 -64
WIRE -2640 -16 -2640 -80
WIRE -960 0 -1008 0
WIRE -800 0 -880 0
WIRE 1184 0 1136 0
WIRE 1344 0 1264 0
WIRE -2000 16 -2000 -48
WIRE -2000 16 -2080 16
WIRE -1936 16 -1936 -32
WIRE 144 16 144 -48
WIRE 144 16 48 16
WIRE 208 16 208 -32
WIRE -2080 32 -2080 16
WIRE 48 32 48 16
WIRE -2000 80 -2000 16
WIRE -1760 80 -1760 48
WIRE -1760 80 -2000 80
WIRE -1360 80 -1360 64
WIRE 144 80 144 16
WIRE 384 80 384 48
WIRE 384 80 144 80
WIRE 784 80 784 64
WIRE -2000 96 -2000 80
WIRE -1440 96 -1440 -64
WIRE -1392 96 -1440 96
WIRE -928 96 -928 80
WIRE 144 96 144 80
WIRE 704 96 704 -64
WIRE 752 96 704 96
WIRE 1216 96 1216 80
WIRE -2640 112 -2640 64
WIRE -2592 112 -2640 112
WIRE -2464 112 -2512 112
WIRE -1248 112 -1248 -64
WIRE -1248 112 -1328 112
WIRE -1136 112 -1248 112
WIRE -1008 112 -1008 0
WIRE -1008 112 -1056 112
WIRE -960 112 -1008 112
WIRE -496 112 -496 48
WIRE -432 112 -496 112
WIRE -320 112 -352 112
WIRE 896 112 896 -64
WIRE 896 112 816 112
WIRE 1008 112 896 112
WIRE 1136 112 1136 0
WIRE 1136 112 1088 112
WIRE 1184 112 1136 112
WIRE -2080 128 -2080 112
WIRE -2080 128 -2208 128
WIRE -1392 128 -1440 128
WIRE -800 128 -800 0
WIRE -800 128 -896 128
WIRE -752 128 -800 128
WIRE 48 128 48 112
WIRE 48 128 -80 128
WIRE 752 128 704 128
WIRE 1344 128 1344 0
WIRE 1344 128 1248 128
WIRE 1440 128 1344 128
WIRE 1568 128 1504 128
WIRE 1856 128 1568 128
WIRE -2640 144 -2640 112
WIRE -960 144 -1008 144
WIRE -496 144 -496 112
WIRE 1184 144 1136 144
WIRE 2000 144 1920 144
WIRE 2032 144 2000 144
WIRE 2192 144 2112 144
WIRE 2288 144 2192 144
WIRE -2080 160 -2080 128
WIRE 48 160 48 128
WIRE 1856 160 1712 160
WIRE -1360 176 -1360 144
WIRE 784 176 784 144
WIRE -2000 192 -2000 176
WIRE -1760 192 -2000 192
WIRE -928 192 -928 160
WIRE 144 192 144 176
WIRE 384 192 144 192
WIRE 1216 192 1216 160
WIRE -1760 208 -1760 192
WIRE 384 208 384 192
WIRE 1568 208 1568 128
WIRE -1008 224 -1008 144
WIRE 1136 224 1136 144
WIRE 2192 224 2192 144
WIRE -2080 256 -2080 240
WIRE -2000 256 -2000 192
WIRE -2000 256 -2080 256
WIRE 48 256 48 240
WIRE 144 256 144 192
WIRE 144 256 48 256
WIRE -2640 272 -2640 224
WIRE -1936 272 -1936 256
WIRE -496 272 -496 224
WIRE 208 272 208 256
WIRE -2000 288 -2000 256
WIRE -1968 288 -2000 288
WIRE 144 288 144 256
WIRE 176 288 144 288
WIRE 1712 288 1712 160
WIRE 1856 288 1712 288
WIRE 2000 288 2000 144
WIRE 2000 288 1936 288
WIRE -1760 304 -1760 288
WIRE -1760 304 -1904 304
WIRE -1632 304 -1760 304
WIRE -1440 304 -1440 128
WIRE -1440 304 -1552 304
WIRE 384 304 384 288
WIRE 384 304 240 304
WIRE 512 304 384 304
WIRE 704 304 704 128
WIRE 704 304 592 304
WIRE 1712 304 1712 288
WIRE -2464 320 -2464 112
WIRE -2368 320 -2464 320
WIRE -2176 320 -2288 320
WIRE -1968 320 -2096 320
WIRE -1952 320 -1968 320
WIRE -320 320 -320 112
WIRE -224 320 -320 320
WIRE -32 320 -144 320
WIRE 176 320 48 320
WIRE 192 320 176 320
WIRE 1568 352 1568 288
WIRE 2192 352 2192 288
WIRE -1936 368 -1936 336
WIRE 208 368 208 336
WIRE -1440 432 -1440 384
WIRE 704 432 704 384
WIRE 1712 448 1712 384
WIRE -2640 464 -2640 352
WIRE -2496 464 -2640 464
WIRE -2304 464 -2416 464
WIRE -496 464 -496 352
WIRE -352 464 -496 464
WIRE -160 464 -272 464
WIRE -2304 544 -2304 464
WIRE -2304 544 -2368 544
WIRE -2208 544 -2208 128
WIRE -2208 544 -2304 544
WIRE -160 544 -160 464
WIRE -160 544 -224 544
WIRE -80 544 -80 128
WIRE -80 544 -160 544
WIRE -2640 560 -2640 464
WIRE -2432 560 -2560 560
WIRE -496 560 -496 464
WIRE -288 560 -416 560
WIRE -2320 576 -2368 576
WIRE -176 576 -224 576
WIRE -2320 640 -2320 576
WIRE -176 640 -176 576
FLAG 704 432 0
FLAG 1568 -208 0
FLAG 1760 -208 0
FLAG 1136 224 0
FLAG 1632 -80 V+
FLAG 208 -112 V-
FLAG 208 256 V+
FLAG 1216 80 V+
FLAG 1840 -80 V-
FLAG 208 16 V+
FLAG 208 368 V-
FLAG 1216 192 V-
FLAG 784 64 V+
FLAG 784 176 V-
FLAG -176 640 0
FLAG -256 528 V+
FLAG -256 592 V-
FLAG -1440 432 0
FLAG -1008 224 0
FLAG -1936 -112 V-
FLAG -1936 256 V+
FLAG -928 80 V+
FLAG -1936 16 V+
FLAG -1936 368 V-
FLAG -928 192 V-
FLAG -1360 64 V+
FLAG -1360 176 V-
FLAG -752 128 Vo_drl
FLAG 1888 176 V+
FLAG 1888 112 V-
FLAG 2288 144 Vo_drl+filtros
FLAG 1712 448 0
FLAG 2192 352 0
FLAG 1568 352 0
FLAG -2320 640 0
FLAG -2400 528 V+
FLAG -2400 592 V-
SYMBOL res 368 -48 R0
SYMATTR InstName R2
SYMATTR Value 24.9K
SYMATTR SpiceLine tol=1 pwr=0.1
SYMBOL res 368 192 R0
SYMATTR InstName R3
SYMATTR Value 24.9K
SYMATTR SpiceLine tol=1 pwr=0.1
SYMBOL res 128 80 R0
SYMATTR InstName R1
SYMATTR Value 5.6K
SYMATTR SpiceLine tol=1 pwr=0.1
SYMBOL res 608 -80 R90
WINDOW 0 0 56 VBottom 2
WINDOW 3 32 56 VTop 2
SYMATTR InstName R4
SYMATTR Value 1K
SYMBOL res 608 288 R90
WINDOW 0 0 56 VBottom 2
WINDOW 3 32 56 VTop 2
SYMATTR InstName R5
SYMATTR Value 1K
SYMBOL res 832 -80 R90
WINDOW 0 0 56 VBottom 2
WINDOW 3 32 56 VTop 2
SYMATTR InstName R6
SYMATTR Value 0.8K
SYMBOL res 720 400 R180
WINDOW 0 36 76 Left 2
WINDOW 3 36 40 Left 2
SYMATTR InstName R7
SYMATTR Value 1K
SYMBOL voltage 1632 -224 R0
WINDOW 123 0 0 Left 0
WINDOW 39 0 0 Left 0
SYMATTR InstName V3
SYMATTR Value -15
SYMBOL OpAmps\\LT1028A 208 0 M180
SYMATTR InstName U1
SYMBOL OpAmps\\LT1028A 208 240 R0
SYMATTR InstName U2
SYMBOL OpAmps\\LT1028A 784 48 R0
SYMATTR InstName U3
SYMBOL voltage 1840 -224 R0
WINDOW 123 0 0 Left 0
WINDOW 39 0 0 Left 0
SYMATTR InstName V4
SYMATTR Value 15
SYMBOL OpAmps\\LT1028A 1216 64 R0
SYMATTR InstName U4
SYMBOL res 1104 96 R90
WINDOW 0 0 56 VBottom 2
WINDOW 3 32 56 VTop 2
SYMATTR InstName R8
SYMATTR Value 1K
SYMATTR SpiceLine tol=1 pwr=0.1
SYMBOL res 1280 -16 R90
WINDOW 0 0 56 VBottom 2
WINDOW 3 32 56 VTop 2
SYMATTR InstName R9
SYMATTR Value 1K
SYMATTR SpiceLine tol=1 pwr=0.1
SYMBOL voltage -496 128 R0
WINDOW 123 0 0 Left 0
WINDOW 39 0 0 Left 0
SYMATTR InstName V1
SYMATTR Value SINE(0 1m 50)
SYMBOL voltage -496 -48 R0
WINDOW 123 0 0 Left 0
WINDOW 39 0 0 Left 0
WINDOW 3 24 96 Invisible 2
SYMATTR Value PWL file=ecg_new.txt
SYMATTR InstName V2
SYMBOL res 112 -96 R90
WINDOW 0 0 56 VBottom 2
WINDOW 3 32 56 VTop 2
SYMATTR InstName R10
SYMATTR Value 50K
SYMATTR SpiceLine tol=1 pwr=0.1
SYMBOL res 64 304 R90
WINDOW 0 0 56 VBottom 2
WINDOW 3 32 56 VTop 2
SYMATTR InstName R11
SYMATTR Value 50K
SYMATTR SpiceLine tol=1 pwr=0.1
SYMBOL res -512 256 R0
SYMATTR InstName R12
SYMATTR Value 50K
SYMBOL res 64 128 R180
WINDOW 0 36 76 Left 2
WINDOW 3 36 40 Left 2
SYMATTR InstName R13
SYMATTR Value 40.8K
SYMATTR SpiceLine tol=1 pwr=0.1
SYMBOL res 64 256 R180
WINDOW 0 36 76 Left 2
WINDOW 3 36 40 Left 2
SYMATTR InstName R14
SYMATTR Value 40.8K
SYMATTR SpiceLine tol=1 pwr=0.1
SYMBOL OpAmps\\LT1028A -256 496 M0
SYMATTR InstName U5
SYMBOL res -400 544 R90
WINDOW 0 0 56 VBottom 2
WINDOW 3 32 56 VTop 2
SYMATTR InstName R15
SYMATTR Value 1Meg
SYMBOL res -256 448 R90
WINDOW 0 0 56 VBottom 2
WINDOW 3 32 56 VTop 2
SYMATTR InstName R16
SYMATTR Value 1Meg
SYMATTR SpiceLine tol=1 pwr=0.1
SYMBOL voltage -448 112 R270
WINDOW 0 32 56 VTop 2
WINDOW 3 -32 56 Invisible 2
WINDOW 123 0 0 Left 0
WINDOW 39 0 0 Left 0
SYMATTR InstName V5
SYMATTR Value PWL file=ecg_new.txt
SYMBOL res -1776 -48 R0
SYMATTR InstName R17
SYMATTR Value 24.9K
SYMBOL res -1776 192 R0
SYMATTR InstName R18
SYMATTR Value 24.9K
SYMBOL res -2016 80 R0
SYMATTR InstName R19
SYMATTR Value 5.6K
SYMBOL res -1536 -80 R90
WINDOW 0 0 56 VBottom 2
WINDOW 3 32 56 VTop 2
SYMATTR InstName R20
SYMATTR Value 1K
SYMBOL res -1536 288 R90
WINDOW 0 0 56 VBottom 2
WINDOW 3 32 56 VTop 2
SYMATTR InstName R21
SYMATTR Value 1K
SYMBOL res -1312 -80 R90
WINDOW 0 0 56 VBottom 2
WINDOW 3 32 56 VTop 2
SYMATTR InstName R22
SYMATTR Value 806
SYMATTR SpiceLine tol=1 pwr=0.1
SYMBOL res -1424 400 R180
WINDOW 0 36 76 Left 2
WINDOW 3 36 40 Left 2
SYMATTR InstName R23
SYMATTR Value 1K
SYMBOL OpAmps\\LT1028A -1936 0 M180
SYMATTR InstName U6
SYMBOL OpAmps\\LT1028A -1936 240 R0
SYMATTR InstName U7
SYMBOL OpAmps\\LT1028A -1360 48 R0
SYMATTR InstName U8
SYMBOL OpAmps\\LT1028A -928 64 R0
SYMATTR InstName U9
SYMBOL res -1040 96 R90
WINDOW 0 0 56 VBottom 2
WINDOW 3 32 56 VTop 2
SYMATTR InstName R24
SYMATTR Value 1K
SYMATTR SpiceLine tol=1 pwr=0.1
SYMBOL res -864 -16 R90
WINDOW 0 0 56 VBottom 2
WINDOW 3 32 56 VTop 2
SYMATTR InstName R25
SYMATTR Value 100K
SYMATTR SpiceLine tol=1 pwr=0.1
SYMBOL voltage -2640 128 R0
WINDOW 123 0 0 Left 0
WINDOW 39 0 0 Left 0
SYMATTR InstName V8
SYMATTR Value SINE(0 1m 50)
SYMBOL voltage -2640 -32 R0
WINDOW 123 0 0 Left 0
WINDOW 39 0 0 Left 0
WINDOW 3 24 96 Invisible 2
SYMATTR Value PWL file=ecg_new.txt
SYMATTR InstName V9
SYMBOL res -2032 -96 R90
WINDOW 0 0 56 VBottom 2
WINDOW 3 32 56 VTop 2
SYMATTR InstName R26
SYMATTR Value 50K
SYMATTR SpiceLine tol=1 pwr=0.1
SYMBOL res -2080 304 R90
WINDOW 0 0 56 VBottom 2
WINDOW 3 32 56 VTop 2
SYMATTR InstName R27
SYMATTR Value 50K
SYMATTR SpiceLine tol=1 pwr=0.1
SYMBOL res -2656 256 R0
SYMATTR InstName R28
SYMATTR Value 50K
SYMBOL voltage -2608 112 R270
WINDOW 0 32 56 VTop 2
WINDOW 3 -32 56 Invisible 2
WINDOW 123 0 0 Left 0
WINDOW 39 0 0 Left 0
SYMATTR InstName V10
SYMATTR Value PWL file=ecg_new.txt
SYMBOL cap 1440 144 R270
WINDOW 0 32 32 VTop 2
WINDOW 3 0 32 VBottom 2
SYMATTR InstName C1
SYMATTR Value 1ľ
SYMATTR SpiceLine V=6.3 Irms=0 Rser=0 Lser=0 mfg="Murata" pn="GRM155R70J105MA12" type="X7R"
SYMBOL cap 2176 224 R0
SYMATTR InstName C2
SYMATTR Value 0.01ľ
SYMATTR SpiceLine V=4 Irms=162m Rser=0.395426 Lser=0 mfg="KEMET" pn="C0402C103K7PAC" type="X5R"
SYMBOL res 1552 192 R0
SYMATTR InstName R29
SYMATTR Value 158K
SYMATTR SpiceLine tol=1 pwr=0.1
SYMBOL res 2128 128 R90
WINDOW 0 0 56 VBottom 2
WINDOW 3 32 56 VTop 2
SYMATTR InstName R30
SYMATTR Value 226K
SYMATTR SpiceLine tol=1 pwr=0.1
SYMBOL OpAmps\\LT1028A 1888 208 M180
SYMATTR InstName U10
SYMBOL res 1840 304 R270
WINDOW 0 32 56 VTop 2
WINDOW 3 0 56 VBottom 2
SYMATTR InstName R31
SYMATTR Value 118K
SYMATTR SpiceLine tol=1 pwr=0.1
SYMBOL res 1728 400 R180
WINDOW 0 36 76 Left 2
WINDOW 3 36 40 Left 2
SYMATTR InstName R32
SYMATTR Value 1K
SYMATTR SpiceLine tol=1 pwr=0.1
SYMBOL bv -192 -80 R90
WINDOW 0 -32 56 VBottom 2
WINDOW 3 32 56 VTop 2
SYMATTR InstName B1
SYMATTR Value V=white(1000*time) / 5000
SYMBOL res -2064 128 R180
WINDOW 0 36 76 Left 2
WINDOW 3 36 40 Left 2
SYMATTR InstName R33
SYMATTR Value 40.8K
SYMATTR SpiceLine tol=1 pwr=0.1
SYMBOL res -2064 256 R180
WINDOW 0 36 76 Left 2
WINDOW 3 36 40 Left 2
SYMATTR InstName R34
SYMATTR Value 40.8K
SYMATTR SpiceLine tol=1 pwr=0.1
SYMBOL OpAmps\\LT1028A -2400 496 M0
SYMATTR InstName U11
SYMBOL res -2544 544 R90
WINDOW 0 0 56 VBottom 2
WINDOW 3 32 56 VTop 2
SYMATTR InstName R35
SYMATTR Value 1Meg
SYMBOL res -2400 448 R90
WINDOW 0 0 56 VBottom 2
WINDOW 3 32 56 VTop 2
SYMATTR InstName R36
SYMATTR Value 1Meg
SYMATTR SpiceLine tol=1 pwr=0.1
SYMBOL bv -2320 -80 R90
WINDOW 0 -32 56 VBottom 2
WINDOW 3 32 56 VTop 2
SYMATTR InstName B2
SYMATTR Value V=white(1000*time) / 5000
SYMBOL bv -240 320 R270
WINDOW 0 32 56 VTop 2
WINDOW 3 -32 56 VBottom 2
SYMATTR InstName B3
SYMATTR Value V=white(1000*time) / 5000
SYMBOL bv -2384 320 R270
WINDOW 0 32 56 VTop 2
WINDOW 3 -32 56 VBottom 2
SYMATTR InstName B4
SYMATTR Value V= white(1000*time) / 5000
TEXT 1088 768 Left 2 !.tran 5s
